Version 4.1
SHEET 1 880 680
WIRE 528 -128 320 -128
WIRE 320 -96 320 -128
WIRE 320 16 320 -16
WIRE 544 16 320 16
WIRE 320 144 320 96
WIRE 544 144 320 144
WIRE 320 160 320 144
WIRE -64 176 -64 160
WIRE 32 176 32 160
WIRE 320 272 320 240
FLAG -64 176 0
FLAG 32 176 0
FLAG -64 80 VDD
FLAG 32 80 Vin
FLAG 320 -208 VDD
FLAG 560 -144 VDD
FLAG 576 0 VDD
FLAG 576 128 VDD
FLAG 560 -80 0
FLAG 576 64 0
FLAG 576 192 0
FLAG 320 272 0
FLAG 528 -96 Vin
FLAG 544 48 Vin
FLAG 544 176 Vin
FLAG 592 -112 B2
FLAG 608 32 B1
FLAG 608 160 B0
SYMBOL voltage -64 64 R0
SYMATTR InstName V1
SYMATTR Value 5
SYMBOL voltage 32 64 R0
WINDOW 123 24 124 Left 2
WINDOW 39 0 0 Left 0
SYMATTR InstName V2
SYMATTR Value SINE(2.5 2.5 2)
SYMATTR Value2 AC 2.5
SYMBOL res 304 0 R0
SYMATTR InstName R2
SYMATTR Value 1k
SYMBOL res 304 -112 R0
SYMATTR InstName R3
SYMATTR Value 1k
SYMBOL res 304 -224 R0
SYMATTR InstName R4
SYMATTR Value 1k
SYMBOL OpAmps\\UniversalOpAmp2 560 -112 R0
SYMATTR InstName U1
SYMBOL OpAmps\\UniversalOpAmp2 576 32 R0
SYMATTR InstName U2
SYMBOL OpAmps\\UniversalOpAmp2 576 160 R0
SYMATTR InstName U3
SYMBOL res 304 144 R0
SYMATTR InstName R1
SYMATTR Value 1k
TEXT 88 264 Left 2 !.tran 0 5 0 0.001
