Version 4.1
SHEET 1 1264 680
WIRE 1104 -144 640 -144
WIRE 528 -128 320 -128
WIRE 992 -112 592 -112
WIRE 320 -96 320 -128
WIRE 1040 -16 1008 -16
WIRE 992 0 992 -112
WIRE 1040 0 992 0
WIRE 320 16 320 -16
WIRE 544 16 320 16
WIRE 1008 16 1008 -16
WIRE 1040 16 1008 16
WIRE 640 32 640 -144
WIRE 640 32 608 32
WIRE 656 32 640 32
WIRE 736 32 720 32
WIRE 1040 32 992 32
WIRE 1008 48 1008 16
WIRE 1040 48 1008 48
WIRE 1008 64 1008 48
WIRE 1056 64 1056 48
WIRE 1056 64 1008 64
WIRE 1056 80 1056 64
WIRE 784 96 752 96
WIRE 736 112 736 32
WIRE 784 112 736 112
WIRE 992 112 992 32
WIRE 992 112 848 112
WIRE 752 128 752 96
WIRE 784 128 752 128
WIRE 320 144 320 96
WIRE 544 144 320 144
WIRE 752 144 752 128
WIRE 784 144 752 144
WIRE 320 160 320 144
WIRE 784 160 608 160
WIRE -64 176 -64 160
WIRE 32 176 32 160
WIRE 800 192 800 160
WIRE 320 272 320 240
FLAG -64 176 0
FLAG 32 176 0
FLAG -64 80 VDD
FLAG 32 80 Vin
FLAG 320 -208 VDD
FLAG 560 -144 VDD
FLAG 576 0 VDD
FLAG 576 128 VDD
FLAG 560 -80 0
FLAG 576 64 0
FLAG 576 192 0
FLAG 320 272 0
FLAG 528 -96 Vin
FLAG 544 48 Vin
FLAG 544 176 Vin
FLAG 1104 0 Q0
FLAG 1104 -144 Q1
FLAG 1056 80 0
FLAG 752 144 VDD
FLAG 800 192 0
FLAG 656 48 0
SYMBOL voltage -64 64 R0
SYMATTR InstName V1
SYMATTR Value 5
SYMBOL voltage 32 64 R0
WINDOW 123 24 124 Left 2
WINDOW 39 0 0 Left 0
SYMATTR Value2 AC 2.5
SYMATTR InstName V2
SYMATTR Value SINE(2.5 2.5 2)
SYMBOL res 304 0 R0
SYMATTR InstName R2
SYMATTR Value 1k
SYMBOL res 304 -112 R0
SYMATTR InstName R3
SYMATTR Value 1k
SYMBOL res 304 -224 R0
SYMATTR InstName R4
SYMATTR Value 1k
SYMBOL OpAmps\\UniversalOpAmp2 560 -112 R0
SYMATTR InstName U1
SYMBOL OpAmps\\UniversalOpAmp2 576 32 R0
SYMATTR InstName U2
SYMBOL OpAmps\\UniversalOpAmp2 576 160 R0
SYMATTR InstName U3
SYMBOL res 304 144 R0
SYMATTR InstName R1
SYMATTR Value 1k
SYMBOL Digital\\inv 656 -32 R0
WINDOW 3 8 60 Invisible 0
SYMATTR InstName A1
SYMATTR Value Vhigh=5 Vlow=0
SYMBOL Digital\\and 816 64 R0
WINDOW 3 16 52 Invisible 2
SYMATTR InstName A2
SYMATTR Value Vhigh=5 Vlow=0
SYMBOL Digital\\or 1072 -48 R0
WINDOW 3 -8 36 Invisible 2
SYMATTR InstName A3
SYMATTR Value Vhigh=5 Vlow=0
TEXT 88 264 Left 2 !.tran 0 5 0 0.001
